DTXCID101
  Mrv1533009301517202D          

  0  0  0     0  0            999 V3000
M  V30 BEGIN CTAB
M  V30 COUNTS 14 16 0 0 0
M  V30 BEGIN ATOM
M  V30 1 N 8.5138 -4.342 0 0
M  V30 2 C 7.1856 -3.5757 0 0
M  V30 3 C 7.1856 -2.0347 0 0
M  V30 4 C 5.8488 -1.2685 0 0
M  V30 5 C 4.5208 -2.0347 0 0
M  V30 6 C 4.5208 -3.5757 0 0
M  V30 7 N 5.8488 -4.342 0 0
M  V30 8 N 3.0565 -4.0526 0 0
M  V30 9 C 2.1539 -2.8011 0 0
M  V30 10 C 0.6215 -2.6477 0 0
M  V30 11 C 0 -1.243 0 0
M  V30 12 C 0.9025 0 0 0
M  V30 13 C 2.4349 -0.1532 0 0
M  V30 14 C 3.0565 -1.5579 0 0
M  V30 END ATOM
M  V30 BEGIN BOND
M  V30 1 1 1 2
M  V30 2 1 2 3
M  V30 3 2 2 7
M  V30 4 2 3 4
M  V30 5 1 4 5
M  V30 6 2 5 6
M  V30 7 1 5 14
M  V30 8 1 6 7
M  V30 9 1 6 8
M  V30 10 1 8 9
M  V30 11 2 9 10
M  V30 12 1 9 14
M  V30 13 1 10 11
M  V30 14 2 11 12
M  V30 15 1 12 13
M  V30 16 2 13 14
M  V30 END BOND
M  V30 END CTAB
M  END
>  <DSSTox_Structure_Id>
DTXCID101

>  <PUBCHEM_EXT_DATASOURCE_REGID>
DTXSID7020001

>  <PUBCHEM_EXT_SUBSTANCE_URL>
https://comptox.epa.gov/dashboard/DTXSID7020001

>  <PUBCHEM_SUBSTANCE_SYNONYM>
A-alpha-C
26148-68-5

>  <PUBCHEM_SUBSTANCE_COMMENT>
QC-Level: DSSTox_Low

$$$$
DTXCID404
  Mrv1533009301517202D          

  0  0  0     0  0            999 V3000
M  V30 BEGIN CTAB
M  V30 COUNTS 4 3 0 0 0
M  V30 BEGIN ATOM
M  V30 1 C 0 0 0 0
M  V30 2 C 1.3341 -0.7692 0 0
M  V30 3 N 2.6725 0 0 0
M  V30 4 O 4.0068 -0.7692 0 0
M  V30 END ATOM
M  V30 BEGIN BOND
M  V30 1 1 1 2
M  V30 2 2 2 3
M  V30 3 1 3 4
M  V30 END BOND
M  V30 END CTAB
M  END
>  <DSSTox_Structure_Id>
DTXCID404

>  <PUBCHEM_EXT_DATASOURCE_REGID>
DTXSID2020004

>  <PUBCHEM_EXT_SUBSTANCE_URL>
https://comptox.epa.gov/dashboard/DTXSID2020004

>  <PUBCHEM_SUBSTANCE_SYNONYM>
Acetaldehyde oxime
107-29-9

>  <PUBCHEM_SUBSTANCE_COMMENT>
QC-Level: DSSTox_Low

$$$$
DTXCID505
  Mrv1533009301517202D          

  0  0  0     0  0            999 V3000
M  V30 BEGIN CTAB
M  V30 COUNTS 4 3 0 0 0
M  V30 BEGIN ATOM
M  V30 1 C 2.3093 0 0 0
M  V30 2 C 1.5386 -1.3333 0 0
M  V30 3 O 2.3093 -2.6667 0 0
M  V30 4 N 0 -1.3333 0 0
M  V30 END ATOM
M  V30 BEGIN BOND
M  V30 1 1 1 2
M  V30 2 2 2 3
M  V30 3 1 2 4
M  V30 END BOND
M  V30 END CTAB
M  END
>  <DSSTox_Structure_Id>
DTXCID505

>  <PUBCHEM_EXT_DATASOURCE_REGID>
DTXSID7020005

>  <PUBCHEM_EXT_SUBSTANCE_URL>
https://comptox.epa.gov/dashboard/DTXSID7020005

>  <PUBCHEM_SUBSTANCE_SYNONYM>
Acetamide
60-35-5

>  <PUBCHEM_SUBSTANCE_COMMENT>
QC-Level: DSSTox_High

$$$$
DTXCID606
  Mrv1533009301517202D          

  0  0  0     0  0            999 V3000
M  V30 BEGIN CTAB
M  V30 COUNTS 11 11 0 0 0
M  V30 BEGIN ATOM
M  V30 1 C 6.6468 -0.782 0 0
M  V30 2 N 5.3063 0 0 0
M  V30 3 O 6.6468 -2.322 0 0
M  V30 4 C 3.9896 -0.782 0 0
M  V30 5 C 1.3325 -2.322 0 0
M  V30 6 C 3.9896 -2.322 0 0
M  V30 7 C 2.6731 -0.0239 0 0
M  V30 8 C 1.3325 -0.798 0 0
M  V30 9 C 2.6731 -3.08 0 0
M  V30 10 O 0 -3.1199 0 0
M  V30 11 C 7.9794 0 0 0
M  V30 END ATOM
M  V30 BEGIN BOND
M  V30 1 1 1 2
M  V30 2 2 1 3
M  V30 3 1 1 11
M  V30 4 1 2 4
M  V30 5 2 4 6
M  V30 6 1 4 7
M  V30 7 1 5 8
M  V30 8 1 5 10
M  V30 9 2 5 9
M  V30 10 1 6 9
M  V30 11 2 7 8
M  V30 END BOND
M  V30 END CTAB
M  END
>  <DSSTox_Structure_Id>
DTXCID606

>  <PUBCHEM_EXT_DATASOURCE_REGID>
DTXSID2020006

>  <PUBCHEM_EXT_SUBSTANCE_URL>
https://comptox.epa.gov/dashboard/DTXSID2020006

>  <PUBCHEM_SUBSTANCE_SYNONYM>
Acetaminophen
103-90-2

>  <PUBCHEM_SUBSTANCE_COMMENT>
QC-Level: DSSTox_Low

$$$$
DTXCID707
  Mrv1533009301517202D          

  0  0  0     0  0            999 V3000
M  V30 BEGIN CTAB
M  V30 COUNTS 22 23 0 0 0
M  V30 BEGIN ATOM
M  V30 1 S 6.9231 -1.54 0 0
M  V30 2 N 8.4631 -1.54 0 0
M  V30 3 C 9.2539 -2.8858 0 0
M  V30 4 C 5.3831 -1.54 0 0
M  V30 5 O 6.9231 0 0 0
M  V30 6 O 6.9231 -3.08 0 0
M  V30 7 N 10.7939 -2.8858 0 0
M  V30 8 C 2.3031 -1.54 0 0
M  V30 9 C 0.7631 -1.54 0 0
M  V30 10 O 8.4631 -4.2176 0 0
M  V30 11 C 4.62 -2.8858 0 0
M  V30 12 C 4.62 -0.222 0 0
M  V30 13 O 0 -0.222 0 0
M  V30 14 C 3.08 -0.222 0 0
M  V30 15 C 3.08 -2.8858 0 0
M  V30 16 C 11.5569 -4.2176 0 0
M  V30 17 C 0 -2.8858 0 0
M  V30 18 C 10.7939 -5.5496 0 0
M  V30 19 C 13.0969 -4.2176 0 0
M  V30 20 C 11.5569 -6.8676 0 0
M  V30 21 C 13.8739 -5.5496 0 0
M  V30 22 C 13.0969 -6.8676 0 0
M  V30 END ATOM
M  V30 BEGIN BOND
M  V30 1 1 1 2
M  V30 2 1 1 4
M  V30 3 2 1 5
M  V30 4 2 1 6
M  V30 5 1 2 3
M  V30 6 1 3 7
M  V30 7 2 3 10
M  V30 8 2 4 11
M  V30 9 1 4 12
M  V30 10 1 7 16
M  V30 11 1 8 14
M  V30 12 1 8 9
M  V30 13 2 8 15
M  V30 14 2 9 13
M  V30 15 1 9 17
M  V30 16 1 11 15
M  V30 17 2 12 14
M  V30 18 1 16 18
M  V30 19 1 16 19
M  V30 20 1 18 20
M  V30 21 1 19 21
M  V30 22 1 20 22
M  V30 23 1 21 22
M  V30 END BOND
M  V30 END CTAB
M  END
>  <DSSTox_Structure_Id>
DTXCID707

>  <PUBCHEM_EXT_DATASOURCE_REGID>
DTXSID7020007

>  <PUBCHEM_EXT_SUBSTANCE_URL>
https://comptox.epa.gov/dashboard/DTXSID7020007

>  <PUBCHEM_SUBSTANCE_SYNONYM>
Acetohexamide
968-81-0

>  <PUBCHEM_SUBSTANCE_COMMENT>
QC-Level: DSSTox_Low

$$$$
DTXCID808
  Mrv1533009301517202D          

  0  0  0     0  0            999 V3000
M  V30 BEGIN CTAB
M  V30 COUNTS 18 19 0 0 0
M  V30 BEGIN ATOM
M  V30 1 C 12.8703 -2.4149 0 0
M  V30 2 C 12.8703 -0.8666 0 0
M  V30 3 C 14.2057 -3.1821 0 0
M  V30 4 N 11.5351 -3.1821 0 0
M  V30 5 N 10.1996 -2.4149 0 0
M  V30 6 C 8.8784 -3.1821 0 0
M  V30 7 N 8.7081 -4.7021 0 0
M  V30 8 C 7.2023 -5.0289 0 0
M  V30 9 C 6.4352 -3.6935 0 0
M  V30 10 S 7.4722 -2.557 0 0
M  V30 11 C 4.9011 -3.5372 0 0
M  V30 12 C 3.8782 -4.6738 0 0
M  V30 13 C 2.4717 -4.0487 0 0
M  V30 14 C 2.628 -2.5285 0 0
M  V30 15 O 4.1339 -2.2019 0 0
M  V30 16 N 1.4917 -1.4917 0 0 CHG=1
M  V30 17 O 0 -1.8893 0 0
M  V30 18 O 1.8893 0 0 0 CHG=-1
M  V30 END ATOM
M  V30 BEGIN BOND
M  V30 1 1 1 2
M  V30 2 1 1 3
M  V30 3 2 1 4
M  V30 4 1 4 5
M  V30 5 1 5 6
M  V30 6 2 6 7
M  V30 7 1 6 10
M  V30 8 1 7 8
M  V30 9 2 8 9
M  V30 10 1 9 10
M  V30 11 1 9 11
M  V30 12 2 11 12
M  V30 13 1 11 15
M  V30 14 1 12 13
M  V30 15 2 13 14
M  V30 16 1 14 15
M  V30 17 1 14 16
M  V30 18 2 16 17
M  V30 19 1 16 18
M  V30 END BOND
M  V30 END CTAB
M  END
>  <DSSTox_Structure_Id>
DTXCID808

>  <PUBCHEM_EXT_DATASOURCE_REGID>
DTXSID2020008

>  <PUBCHEM_EXT_SUBSTANCE_URL>
https://comptox.epa.gov/dashboard/DTXSID2020008

>  <PUBCHEM_SUBSTANCE_SYNONYM>
Acetone[4-(5-nitro-2-furyl)-2-thiazolyl] hydrazone
18523-69-8

>  <PUBCHEM_SUBSTANCE_COMMENT>
QC-Level: DSSTox_Low

$$$$
DTXCID909
  Mrv1533009301517202D          

  0  0  0     0  0            999 V3000
M  V30 BEGIN CTAB
M  V30 COUNTS 3 2 0 0 0
M  V30 BEGIN ATOM
M  V30 1 C 3.08 0 0 0
M  V30 2 C 1.54 0 0 0
M  V30 3 N 0 0 0 0
M  V30 END ATOM
M  V30 BEGIN BOND
M  V30 1 1 1 2
M  V30 2 3 2 3
M  V30 END BOND
M  V30 END CTAB
M  END
>  <DSSTox_Structure_Id>
DTXCID909

>  <PUBCHEM_EXT_DATASOURCE_REGID>
DTXSID7020009

>  <PUBCHEM_EXT_SUBSTANCE_URL>
https://comptox.epa.gov/dashboard/DTXSID7020009

>  <PUBCHEM_SUBSTANCE_SYNONYM>
Acetonitrile
75-05-8

>  <PUBCHEM_SUBSTANCE_COMMENT>
QC-Level: DSSTox_Low

$$$$
DTXCID1010
  Mrv1533009301517202D          

  0  0  0     0  0            999 V3000
M  V30 BEGIN CTAB
M  V30 COUNTS 5 4 0 0 0
M  V30 BEGIN ATOM
M  V30 1 C 4.0032 -2.3098 0 0
M  V30 2 C 2.6701 -1.5412 0 0
M  V30 3 N 1.3331 -2.3098 0 0
M  V30 4 O 0 -1.5412 0 0
M  V30 5 C 2.6701 0 0 0
M  V30 END ATOM
M  V30 BEGIN BOND
M  V30 1 1 1 2
M  V30 2 2 2 3
M  V30 3 1 2 5
M  V30 4 1 3 4
M  V30 END BOND
M  V30 END CTAB
M  END
>  <DSSTox_Structure_Id>
DTXCID1010

>  <PUBCHEM_EXT_DATASOURCE_REGID>
DTXSID6020010

>  <PUBCHEM_EXT_SUBSTANCE_URL>
https://comptox.epa.gov/dashboard/DTXSID6020010

>  <PUBCHEM_SUBSTANCE_SYNONYM>
Acetoxime
127-06-0

>  <PUBCHEM_SUBSTANCE_COMMENT>
QC-Level: DSSTox_Low

$$$$
DTXCID5012
  Mrv1533009301517202D          

  0  0  0     0  0            999 V3000
M  V30 BEGIN CTAB
M  V30 COUNTS 13 13 0 0 0
M  V30 BEGIN ATOM
M  V30 1 N 3.0864 -2.6755 0 0
M  V30 2 N 2.3148 -1.3427 0 0
M  V30 3 C 0.7716 -1.3427 0 0
M  V30 4 C 0 -2.6755 0 0
M  V30 5 O 0 0 0 0
M  V30 6 C 4.6294 -2.6755 0 0
M  V30 7 C 5.3912 -1.3427 0 0
M  V30 8 C 6.9342 -1.3427 0 0
M  V30 9 C 7.7058 -2.6755 0 0
M  V30 10 C 6.9342 -4.0082 0 0
M  V30 11 C 5.3912 -4.0082 0 0
M  V30 12 C 9.249 -2.6755 0 0
M  V30 13 O 10.0205 -4.0082 0 0
M  V30 END ATOM
M  V30 BEGIN BOND
M  V30 1 1 1 2
M  V30 2 1 1 6
M  V30 3 1 2 3
M  V30 4 1 3 4
M  V30 5 2 3 5
M  V30 6 2 6 7
M  V30 7 1 6 11
M  V30 8 1 7 8
M  V30 9 2 8 9
M  V30 10 1 9 10
M  V30 11 1 9 12
M  V30 12 2 10 11
M  V30 13 1 12 13
M  V30 END BOND
M  V30 END CTAB
M  END
>  <DSSTox_Structure_Id>
DTXCID5012

>  <PUBCHEM_EXT_DATASOURCE_REGID>
DTXSID6020012

>  <PUBCHEM_EXT_SUBSTANCE_URL>
https://comptox.epa.gov/dashboard/DTXSID6020012

>  <PUBCHEM_SUBSTANCE_SYNONYM>
N'-Acetyl-4-(hydroxymethyl) phenylhydrazine
65734-38-5

>  <PUBCHEM_SUBSTANCE_COMMENT>
QC-Level: DSSTox_Low

$$$$
DTXCID7013
  Mrv1533009301517202D          

  0  0  0     0  0            999 V3000
M  V30 BEGIN CTAB
M  V30 COUNTS 13 13 0 0 0
M  V30 BEGIN ATOM
M  V30 1 N 3.9958 -2.3099 0 0
M  V30 2 N 2.6638 -1.5367 0 0
M  V30 3 C 1.3319 -2.3099 0 0
M  V30 4 C 0 -1.5367 0 0
M  V30 5 O 1.3319 -3.8468 0 0
M  V30 6 C 5.3185 -1.5367 0 0
M  V30 7 C 6.6503 -2.3099 0 0
M  V30 8 C 7.9822 -1.5367 0 0
M  V30 9 C 9.3141 -2.3099 0 0
M  V30 10 N 9.3141 -3.8468 0 0
M  V30 11 C 7.9822 -4.6106 0 0
M  V30 12 C 6.6503 -3.8468 0 0
M  V30 13 O 5.3185 0 0 0
M  V30 END ATOM
M  V30 BEGIN BOND
M  V30 1 1 1 2
M  V30 2 1 1 6
M  V30 3 1 2 3
M  V30 4 1 3 4
M  V30 5 2 3 5
M  V30 6 1 6 7
M  V30 7 2 6 13
M  V30 8 2 7 8
M  V30 9 1 7 12
M  V30 10 1 8 9
M  V30 11 2 9 10
M  V30 12 1 10 11
M  V30 13 2 11 12
M  V30 END BOND
M  V30 END CTAB
M  END
>  <DSSTox_Structure_Id>
DTXCID7013

>  <PUBCHEM_EXT_DATASOURCE_REGID>
DTXSID1020013

>  <PUBCHEM_EXT_SUBSTANCE_URL>
https://comptox.epa.gov/dashboard/DTXSID1020013

>  <PUBCHEM_SUBSTANCE_SYNONYM>
1-Acetyl-2-isonicotinoylhydrazine
1078-38-2

>  <PUBCHEM_SUBSTANCE_COMMENT>
QC-Level: DSSTox_Low

$$$$
DTXCID9014
  Mrv1533012151512462D          

  0  0  0     0  0            999 V3000
M  V30 BEGIN CTAB
M  V30 COUNTS 12 12 0 0 0
M  V30 BEGIN ATOM
M  V30 1 O 2.3101 -5.3417 0 0
M  V30 2 C 3.0801 -4.0097 0 0
M  V30 3 C 2.3101 -2.6708 0 0
M  V30 4 C 3.0801 -1.3389 0 0
M  V30 5 O 2.3101 0 0 0
M  V30 6 O 4.6272 -1.3389 0 0
M  V30 7 C 5.3972 -2.6708 0 0
M  V30 8 C 4.6272 -4.0097 0 0
M  V30 9 C 6.9372 -2.6708 0 0
M  V30 10 C 0.7701 -2.6708 0 0
M  V30 11 O 0 -4.0097 0 0
M  V30 12 C 0 -1.3389 0 0
M  V30 END ATOM
M  V30 BEGIN BOND
M  V30 1 2 1 2
M  V30 2 1 2 3
M  V30 3 1 2 8
M  V30 4 1 3 4
M  V30 5 1 3 10
M  V30 6 2 4 5
M  V30 7 1 4 6
M  V30 8 1 6 7
M  V30 9 2 7 8
M  V30 10 1 7 9
M  V30 11 2 10 11
M  V30 12 1 10 12
M  V30 END BOND
M  V30 END CTAB
M  END
>  <DSSTox_Structure_Id>
DTXCID9014

>  <PUBCHEM_EXT_DATASOURCE_REGID>
DTXSID6020014

>  <PUBCHEM_EXT_SUBSTANCE_URL>
https://comptox.epa.gov/dashboard/DTXSID6020014

>  <PUBCHEM_SUBSTANCE_SYNONYM>
Dehydroacetic acid
520-45-6

>  <PUBCHEM_SUBSTANCE_COMMENT>
QC-Level: DSSTox_Low

$$$$
DTXCID1015
  Mrv1533009301517202D          

  0  0  0     0  0            999 V3000
M  V30 BEGIN CTAB
M  V30 COUNTS 11 11 0 0 0
M  V30 BEGIN ATOM
M  V30 1 C 4.6239 -2.674 0 0
M  V30 2 N 3.0827 -2.674 0 0
M  V30 3 N 2.3118 -1.3409 0 0
M  V30 4 C 0.7706 -1.3409 0 0
M  V30 5 C 0 -2.674 0 0
M  V30 6 O 0 0 0 0
M  V30 7 C 5.3945 -1.3409 0 0
M  V30 8 C 6.9357 -1.3409 0 0
M  V30 9 C 7.7064 -2.674 0 0
M  V30 10 C 6.9357 -4.0073 0 0
M  V30 11 C 5.3945 -4.0073 0 0
M  V30 END ATOM
M  V30 BEGIN BOND
M  V30 1 1 1 2
M  V30 2 2 1 7
M  V30 3 1 1 11
M  V30 4 1 2 3
M  V30 5 1 3 4
M  V30 6 1 4 5
M  V30 7 2 4 6
M  V30 8 1 7 8
M  V30 9 2 8 9
M  V30 10 1 9 10
M  V30 11 2 10 11
M  V30 END BOND
M  V30 END CTAB
M  END
>  <DSSTox_Structure_Id>
DTXCID1015

>  <PUBCHEM_EXT_DATASOURCE_REGID>
DTXSID1020015

>  <PUBCHEM_EXT_SUBSTANCE_URL>
https://comptox.epa.gov/dashboard/DTXSID1020015

>  <PUBCHEM_SUBSTANCE_SYNONYM>
1-Acetyl-2-phenylhydrazine
114-83-0

>  <PUBCHEM_SUBSTANCE_COMMENT>
QC-Level: DSSTox_Low

$$$$
DTXCID5017
  Mrv1533009301517202D          

  0  0  0     0  0            999 V3000
M  V30 BEGIN CTAB
M  V30 COUNTS 17 19 0 0 0
M  V30 BEGIN ATOM
M  V30 1 C 9.7151 -2.6619 0 0
M  V30 2 C 8.9475 -4.0026 0 0
M  V30 3 O 9.7151 -5.3335 0 0
M  V30 4 N 7.403 -4.0026 0 0
M  V30 5 C 6.6354 -2.6619 0 0
M  V30 6 C 5.0906 -2.6619 0 0
M  V30 7 C 4.061 -3.8084 0 0
M  V30 8 C 2.6521 -3.1865 0 0
M  V30 9 C 1.2436 -3.8084 0 0
M  V30 10 C 0 -2.9047 0 0
M  V30 11 C 0.1652 -1.3699 0 0
M  V30 12 C 1.564 -0.7481 0 0
M  V30 13 C 2.8173 -1.6514 0 0
M  V30 14 C 4.3232 -1.331 0 0
M  V30 15 C 5.0906 0 0 0
M  V30 16 C 6.6354 0 0 0
M  V30 17 C 7.403 -1.331 0 0
M  V30 END ATOM
M  V30 BEGIN BOND
M  V30 1 1 1 2
M  V30 2 2 2 3
M  V30 3 1 2 4
M  V30 4 1 4 5
M  V30 5 2 5 6
M  V30 6 1 5 17
M  V30 7 1 6 7
M  V30 8 1 6 14
M  V30 9 1 7 8
M  V30 10 2 8 9
M  V30 11 1 8 13
M  V30 12 1 9 10
M  V30 13 2 10 11
M  V30 14 1 11 12
M  V30 15 2 12 13
M  V30 16 1 13 14
M  V30 17 2 14 15
M  V30 18 1 15 16
M  V30 19 2 16 17
M  V30 END BOND
M  V30 END CTAB
M  END
>  <DSSTox_Structure_Id>
DTXCID5017

>  <PUBCHEM_EXT_DATASOURCE_REGID>
DTXSID1020017

>  <PUBCHEM_EXT_SUBSTANCE_URL>
https://comptox.epa.gov/dashboard/DTXSID1020017

>  <PUBCHEM_SUBSTANCE_SYNONYM>
1-Acetylaminofluorene
28314-03-6

>  <PUBCHEM_SUBSTANCE_COMMENT>
QC-Level: DSSTox_Low

$$$$
DTXCID9019
  Mrv1533009301517202D          

  0  0  0     0  0            999 V3000
M  V30 BEGIN CTAB
M  V30 COUNTS 17 19 0 0 0
M  V30 BEGIN ATOM
M  V30 1 C 2.6657 -4.6171 0 0
M  V30 2 C 3.8116 -5.6551 0 0
M  V30 3 C 3.1887 -7.0586 0 0
M  V30 4 C 4.0939 -8.3042 0 0
M  V30 5 C 5.6219 -8.1464 0 0
M  V30 6 C 6.2531 -6.7348 0 0
M  V30 7 C 5.3478 -5.4889 0 0
M  V30 8 C 1.6525 -6.9008 0 0
M  V30 9 C 1.3369 -5.3893 0 0
M  V30 10 C 0 -4.6171 0 0
M  V30 11 C 0 -3.0807 0 0
M  V30 12 C 1.3369 -2.3086 0 0
M  V30 13 C 2.6657 -3.0807 0 0
M  V30 14 N 4.0025 -2.3086 0 0
M  V30 15 C 4.0025 -0.7724 0 0
M  V30 16 C 2.6657 0 0 0
M  V30 17 O 5.3311 0 0 0
M  V30 END ATOM
M  V30 BEGIN BOND
M  V30 1 1 1 2
M  V30 2 1 1 9
M  V30 3 2 1 13
M  V30 4 2 2 3
M  V30 5 1 2 7
M  V30 6 1 3 4
M  V30 7 1 3 8
M  V30 8 2 4 5
M  V30 9 1 5 6
M  V30 10 2 6 7
M  V30 11 1 8 9
M  V30 12 2 9 10
M  V30 13 1 10 11
M  V30 14 2 11 12
M  V30 15 1 12 13
M  V30 16 1 13 14
M  V30 17 1 14 15
M  V30 18 1 15 16
M  V30 19 2 15 17
M  V30 END BOND
M  V30 END CTAB
M  END
>  <DSSTox_Structure_Id>
DTXCID9019

>  <PUBCHEM_EXT_DATASOURCE_REGID>
DTXSID1020019

>  <PUBCHEM_EXT_SUBSTANCE_URL>
https://comptox.epa.gov/dashboard/DTXSID1020019

>  <PUBCHEM_SUBSTANCE_SYNONYM>
4-Acetylaminofluorene
28322-02-3

>  <PUBCHEM_SUBSTANCE_COMMENT>
QC-Level: DSSTox_Low

$$$$
DTXCID2020
  Mrv1533009301517202D          

  0  0  0     0  0            999 V3000
M  V30 BEGIN CTAB
M  V30 COUNTS 14 14 0 0 0
M  V30 BEGIN ATOM
M  V30 1 C 6.7077 -0.786 0 0
M  V30 2 C 6.7077 -2.3148 0 0
M  V30 3 C 5.3834 0 0 0
M  V30 4 C 5.3834 -3.1008 0 0
M  V30 5 C 4.0591 -0.786 0 0
M  V30 6 C 4.0591 -2.3148 0 0
M  V30 7 C 8.0752 0 0 0
M  V30 8 C 9.421 -0.7645 0 0
M  V30 9 O 10.7669 0 0 0
M  V30 10 O 9.421 -2.3148 0 0
M  V30 11 N 2.6917 -3.1008 0 0
M  V30 12 C 1.3459 -2.3148 0 0
M  V30 13 C 0 -3.1008 0 0
M  V30 14 O 1.3459 -0.7645 0 0
M  V30 END ATOM
M  V30 BEGIN BOND
M  V30 1 1 1 2
M  V30 2 2 1 3
M  V30 3 1 1 7
M  V30 4 2 2 4
M  V30 5 1 3 5
M  V30 6 1 4 6
M  V30 7 2 5 6
M  V30 8 1 6 11
M  V30 9 1 7 8
M  V30 10 2 8 9
M  V30 11 1 8 10
M  V30 12 1 11 12
M  V30 13 1 12 13
M  V30 14 2 12 14
M  V30 END BOND
M  V30 END CTAB
M  END
>  <DSSTox_Structure_Id>
DTXCID2020

>  <PUBCHEM_EXT_DATASOURCE_REGID>
DTXSID0020020

>  <PUBCHEM_EXT_SUBSTANCE_URL>
https://comptox.epa.gov/dashboard/DTXSID0020020

>  <PUBCHEM_SUBSTANCE_SYNONYM>
4-Acetylaminophenylacetic acid
18699-02-0

>  <PUBCHEM_SUBSTANCE_COMMENT>
QC-Level: DSSTox_Low

$$$$
DTXCID4021
  Mrv1611106231610552D          

  0  0  0     0  0            999 V3000
M  V30 BEGIN CTAB
M  V30 COUNTS 10 9 0 0 1
M  V30 BEGIN ATOM
M  V30 1 C 2.6763 -2.3002 0 0 CFG=1
M  V30 2 C 4.0146 -1.5417 0 0
M  V30 3 N 2.6763 -3.848 0 0
M  V30 4 C 4.0146 -4.625 0 0
M  V30 5 O 4.0146 0 0 0
M  V30 6 O 4.0146 -6.1667 0 0
M  V30 7 O 5.3466 -2.3002 0 0
M  V30 8 S 0 -2.3002 0 0
M  V30 9 C 1.3567 -1.5417 0 0
M  V30 10 C 5.3466 -3.848 0 0
M  V30 END ATOM
M  V30 BEGIN BOND
M  V30 1 1 1 2
M  V30 2 1 1 3 CFG=1
M  V30 3 1 1 9
M  V30 4 2 2 5
M  V30 5 1 2 7
M  V30 6 1 3 4
M  V30 7 2 4 6
M  V30 8 1 4 10
M  V30 9 1 8 9
M  V30 END BOND
M  V30 END CTAB
M  END
>  <DSSTox_Structure_Id>
DTXCID4021

>  <PUBCHEM_EXT_DATASOURCE_REGID>
DTXSID5020021

>  <PUBCHEM_EXT_SUBSTANCE_URL>
https://comptox.epa.gov/dashboard/DTXSID5020021

>  <PUBCHEM_SUBSTANCE_SYNONYM>
N-Acetyl-L-cysteine
616-91-1

>  <PUBCHEM_SUBSTANCE_COMMENT>
QC-Level: DSSTox_High

$$$$
DTXCID6022
  Mrv1533009301517202D          

  0  0  0     0  0            999 V3000
M  V30 BEGIN CTAB
M  V30 COUNTS 24 25 0 0 0
M  V30 BEGIN ATOM
M  V30 1 O 13.3225 -2.3048 0 0
M  V30 2 C 11.9901 -1.5454 0 0
M  V30 3 O 11.9901 0 0 0
M  V30 4 C 10.6579 -2.3048 0 0
M  V30 5 C 10.6579 -3.8502 0 0
M  V30 6 C 9.3257 -4.6228 0 0
M  V30 7 C 7.9933 -3.8502 0 0
M  V30 8 C 7.9933 -2.3048 0 0
M  V30 9 C 9.3257 -1.5454 0 0
M  V30 10 O 6.6612 -1.5454 0 0
M  V30 11 C 5.3289 -2.3048 0 0
M  V30 12 C 5.3289 -3.8502 0 0
M  V30 13 C 3.9968 -4.6228 0 0
M  V30 14 C 2.6644 -3.8502 0 0
M  V30 15 C 2.6644 -2.3048 0 0
M  V30 16 C 3.9968 -1.5454 0 0
M  V30 17 Cl 3.9968 0 0 0
M  V30 18 C 1.3324 -4.6228 0 0
M  V30 19 F 0.5595 -3.2906 0 0
M  V30 20 F 2.105 -5.955 0 0
M  V30 21 F 0 -5.3821 0 0
M  V30 22 N 11.9901 -4.6228 0 0 CHG=1
M  V30 23 O 11.9901 -6.1551 0 0
M  V30 24 O 13.3225 -3.8502 0 0 CHG=-1
M  V30 END ATOM
M  V30 BEGIN BOND
M  V30 1 1 1 2
M  V30 2 2 2 3
M  V30 3 1 2 4
M  V30 4 2 4 5
M  V30 5 1 4 9
M  V30 6 1 5 6
M  V30 7 1 5 22
M  V30 8 2 6 7
M  V30 9 1 7 8
M  V30 10 2 8 9
M  V30 11 1 8 10
M  V30 12 1 10 11
M  V30 13 2 11 12
M  V30 14 1 11 16
M  V30 15 1 12 13
M  V30 16 2 13 14
M  V30 17 1 14 15
M  V30 18 1 14 18
M  V30 19 2 15 16
M  V30 20 1 16 17
M  V30 21 1 18 19
M  V30 22 1 18 20
M  V30 23 1 18 21
M  V30 24 2 22 23
M  V30 25 1 22 24
M  V30 END BOND
M  V30 END CTAB
M  END
>  <DSSTox_Structure_Id>
DTXCID6022

>  <PUBCHEM_EXT_DATASOURCE_REGID>
DTXSID0020022

>  <PUBCHEM_EXT_SUBSTANCE_URL>
https://comptox.epa.gov/dashboard/DTXSID0020022

>  <PUBCHEM_SUBSTANCE_SYNONYM>
Acifluorfen
50594-66-6

>  <PUBCHEM_SUBSTANCE_COMMENT>
QC-Level: DSSTox_Low

$$$$
DTXCID8023
  Mrv1533009301517202D          

  0  0  0     0  0            999 V3000
M  V30 BEGIN CTAB
M  V30 COUNTS 4 3 0 0 0
M  V30 BEGIN ATOM
M  V30 1 C 0 0 0 0
M  V30 2 C 1.334 -0.7692 0 0
M  V30 3 C 2.6719 0 0 0
M  V30 4 O 4.0061 -0.7692 0 0
M  V30 END ATOM
M  V30 BEGIN BOND
M  V30 1 2 1 2
M  V30 2 1 2 3
M  V30 3 2 3 4
M  V30 END BOND
M  V30 END CTAB
M  END
>  <DSSTox_Structure_Id>
DTXCID8023

>  <PUBCHEM_EXT_DATASOURCE_REGID>
DTXSID5020023

>  <PUBCHEM_EXT_SUBSTANCE_URL>
https://comptox.epa.gov/dashboard/DTXSID5020023

>  <PUBCHEM_SUBSTANCE_SYNONYM>
Acrolein
107-02-8

>  <PUBCHEM_SUBSTANCE_COMMENT>
QC-Level: DSSTox_Low

$$$$
